/*--------------------------------*- C++ -*----------------------------------*\																
  =========                 |																
  \\      /  F ield         | OpenFOAM: The Open Source CFD Toolbox																
   \\    /   O peration     | Website:  https://openfoam.org																
    \\  /    A nd           | Version:  7																
     \\/     M anipulation  |																
/*---------------------------------------------------------------------------*/																
FoamFile																
{																
    version     2.0;																
    format      ascii;																
    class       vectorField;																
    object      kinematicCloudPositions;																
}																
// * * * * * * * * * * * * * * * * * * * * * * * * * * * * * * * * * * * * * //																
																
(																
(-0.0009403	-0.000421	0.00159898)														
(-0.00090236	-0.000305	0.00165521)														
(-0.0009993	-0.000372	0.00153473)														
(-0.00082218	-0.000398	0.00167346)														
(-0.00085045	-0.000383	0.00157792)														
(-0.0009188	-0.000410	0.001696)														
(-0.00091842	-0.000506	0.00165886)														
(-0.00080676	-0.000306	0.00162614)														
(-0.00082985	-0.000484	0.00161802)														
(-0.0009567	-0.000289	0.00157242)														
(-0.00095735	-0.000169	0.00186757)														
(-0.00086394	-0.000187	0.00189866)														
(-0.00087163	-0.000166	0.00170483)														
(-0.00090903	-0.000385	0.00149343)														
(-0.00088024	-0.000473	0.00153248)														
(-0.00077055	-0.000365	0.00140442)														
(-0.00108924	-0.000395	0.00157154)														
(-0.00075815	-0.000447	0.00155918)														
(-0.00080395	-0.000404	0.00195394)														
(-0.00093324	-0.000498	0.00175756)														
(-0.0007232	-0.000386	0.00168173)														
(-0.00076421	-0.000551	0.00184355)														
(-0.00100562	-0.000429	0.00174172)														
(-0.00103622	-0.000320	0.00162444)														
(-0.0009767	-0.000194	0.00154592)														
(-0.0010745	-0.000400	0.00167035)														
(-0.00098148	-0.000294	0.00171543)														
(-0.00101073	-0.000535	0.00168393)														
(-0.00102836	-0.000467	0.00161195)														
(-0.00095834	-0.000524	0.00156891)														
(-0.0006722	-0.000424	0.00160446)														
(-0.00066611	-0.000354	0.00148073)														
(-0.00073452	-0.000303	0.00175833)														
(-0.00078737	-0.000639	0.00163807)														
(-0.00079668	-0.000476	0.00177513)														
(-0.00084611	-0.000169	0.0015196)														
(-0.00079065	-0.000220	0.00168312)														
(-0.00095692	-0.000273	0.00147366)														
(-0.00064652	-0.000340	0.00172731)														
(-0.00101666	-0.000204	0.00177069)														
(-0.00082929	-0.000303	0.0017237)														
(-0.00075674	-0.000264	0.00197321)														
(-0.00093581	-0.000141	0.00196135)														
(-0.00074416	-0.000346	0.00184822)														
(-0.00088548	-0.000190	0.00180113)														
(-0.00086811	-0.000134	0.00161034)														
(-0.00096485	-0.000197	0.00168561)														
(-0.00087619	-0.000232	0.00159188)														
(-0.00097211	-0.000373	0.00141588)														
(-0.00086293	-0.000301	0.00152102)														
(-0.00105634	-0.000340	0.00145834)														
(-0.00086869	-0.000268	0.00142678)														
(-0.00085634	-0.000481	0.00143558)														
(-0.00085146	-0.000594	0.00136422)														
(-0.00084659	-0.000576	0.00158315)														
(-0.00086322	-0.000656	0.00149795)														
(-0.00068722	-0.000596	0.00149118)														
(-0.00068087	-0.000325	0.00138609)														
(-0.0011699	-0.000415	0.0016274)														
(-0.00097867	-0.000472	0.00140166)														
(-0.00056436	-0.000606	0.00166164)														
(-0.00074769	-0.000452	0.00202207)														
(-0.00090872	-0.000392	0.00179382)														
(-0.00077618	-0.000455	0.00187086)														
(-0.0008611	-0.000534	0.00182526)														
(-0.00080554	-0.000528	0.00193722)														
(-0.0008207	-0.000558	0.00168542)														
(-0.00105643	-0.000510	0.00176941)														
(-0.00090032	-0.000671	0.00175829)														
(-0.00067783	-0.000439	0.00186031)														
(-0.00067912	-0.000520	0.00180122)														
(-0.00080538	-0.000679	0.00172802)														
(-0.00094828	-0.000268	0.00180625)														
(-0.00105007	-0.000251	0.00150409)														
(-0.00105849	-0.000239	0.00168008)														
(-0.00107757	-0.000160	0.00153405)														
(-0.00098256	-0.000240	0.00138298)														
(-0.0009146	-0.000153	0.00142151)														
(-0.00109569	-0.000538	0.00163076)														
(-0.00113421	-0.000475	0.0016985)														
(-0.00109838	-0.000495	0.00154066)														
(-0.00107569	-0.000322	0.00173317)														
(-0.00094942	-0.000656	0.00167227)														
(-0.00094283	-0.000620	0.00154624)														
(-0.00103347	-0.000576	0.00150912)														
(-0.00089102	-0.000560	0.0014852)														
(-0.00094836	-0.000579	0.00138385)														
(-0.00067926	-0.000428	0.00176082)														
(-0.00072793	-0.000612	0.00177328)														
(-0.00057171	-0.000401	0.00168379)														
(-0.00060571	-0.000218	0.00195314)														
(-0.00070473	-0.000191	0.00175477)														
(-0.00087773	-0.000669	0.0016039)														
(-0.00071001	-0.000694	0.00170124)														
(-0.00072974	-0.000529	0.0017155)														
(-0.00076966	-0.000624	0.00154088)														
(-0.00071361	-0.000248	0.00156971)														
(-0.00077422	-0.000265	0.001492)														
(-0.00080035	-0.000171	0.00143081)														
(-0.00073321	-0.000350	0.0015743)														
(-0.00069293	-0.000101	0.00158972)														
(-0.00077887	-0.000176	0.00159428)														
(-0.00067302	-0.000190	0.00166002)														
(-0.00095271	-0.000096	0.00170262)														
(-0.00111648	-0.000209	0.00176788)														
(-0.00101998	-0.000185	0.00199233)														
(-0.00083642	-0.000317	0.00182242)														
(-0.00074664	-0.000165	0.00196033)														
(-0.00078965	-0.000090	0.00206644)														
(-0.00064206	-0.000133	0.00180783)														
(-0.00068017	-0.000254	0.00182815)														
(-0.00078146	-0.000207	0.00205356)														
(-0.00063534	-0.000285	0.0020208)														
(-0.000857	-0.000067	0.00170717)														
(-0.00095742	-0.000089	0.00160259)														
(-0.0008196	-0.000007	0.00151919)														
(-0.00096896	-0.000100	0.00150383)														
(-0.00086334	-0.000034	0.0016092)														
(-0.00102944	-0.000155	0.00162148)														
(-0.00106977	-0.000301	0.00135349)														
(-0.00109513	-0.000444	0.00130307)														
(-0.00093436	-0.000318	0.00134178)														
(-0.00100445	-0.000491	0.00130692)														
(-0.00089324	-0.000218	0.00134389)														
(-0.00119094	-0.000344	0.00141728)														
(-0.00081672	-0.000421	0.00132454)														
(-0.00087461	-0.000389	0.00139944)														
(-0.00089965	-0.000500	0.00134714)														
(-0.00080234	-0.000592	0.00145135)														
(-0.00077001	-0.000759	0.00163631)														
(-0.00080594	-0.000717	0.00155307)														
(-0.00055913	-0.000512	0.00162803)														
(-0.00072226	-0.000540	0.00156682)														
(-0.00071524	-0.000737	0.00151418)														
(-0.00067454	-0.000453	0.0014856)														
(-0.00075967	-0.000506	0.00147834)														
(-0.0006329	-0.000416	0.00140275)														
(-0.0006193	-0.000274	0.00154815)														
(-0.00122958	-0.000395	0.00170529)														
(-0.0011991	-0.000501	0.0014681)														
(-0.00069817	-0.000595	0.00164671)														
(-0.00093616	-0.000523	0.00200997)														
(-0.00087224	-0.000444	0.0020157)														
(-0.0008132	-0.000440	0.00209651)														
(-0.00087201	-0.000464	0.00189754)														
(-0.00092864	-0.000337	0.00187536)														
(-0.00096371	-0.000442	0.00186087)														
(-0.00100363	-0.000351	0.0018046)														
(-0.00073507	-0.000352	0.00201593)														
(-0.00095904	-0.000541	0.00184415)														
(-0.00087547	-0.000739	0.00194386)														
(-0.0007118	-0.000493	0.00193775)														
(-0.00074666	-0.000634	0.00189702)														
(-0.00089251	-0.000872	0.00181543)														
(-0.0010999	-0.000547	0.00185158)														
(-0.00098071	-0.000689	0.00181475)														
(-0.00104265	-0.000629	0.00169717)														
(-0.00097399	-0.000590	0.00175855)														
(-0.00068862	-0.000367	0.00192875)														
(-0.00058421	-0.000474	0.00186031)														
(-0.00059376	-0.000562	0.00190841)														
(-0.00068557	-0.000735	0.00189411)														
(-0.00080056	-0.000744	0.00180455)														
(-0.00118445	-0.000207	0.00191216)														
(-0.00107611	-0.000220	0.0014127)														
(-0.00115862	-0.000229	0.00165718)														
(-0.0011684	-0.000325	0.00158136)														
(-0.00115652	-0.000151	0.00159483)														
(-0.00110424	-0.000151	0.00168783)														
(-0.00113946	-0.000153	0.00145567)														
(-0.00098393	-0.000184	0.00129997)														
(-0.0008938	-0.000114	0.00133163)														
(-0.00091911	-0.000013	0.00151038)														
(-0.00113893	-0.000628	0.00164331)														
(-0.00102836	-0.000620	0.00159862)														
(-0.00113448	-0.000398	0.00176186)														
(-0.00121329	-0.000536	0.00168895)														
(-0.00129091	-0.000321	0.00175129)														
(-0.00116152	-0.000326	0.00168122)														
(-0.00119351	-0.000509	0.00156807)														
(-0.00109691	-0.000219	0.00186556)														
(-0.00087883	-0.000701	0.00185105)														
(-0.00086993	-0.000766	0.00162933)														
(-0.00096771	-0.000749	0.00170326)														
(-0.00095134	-0.000679	0.00139275)														
(-0.00113361	-0.000583	0.00150696)														
(-0.0010561	-0.000693	0.00153393)														
(-0.00091965	-0.000584	0.00128826)														
(-0.00105135	-0.000571	0.00134632)														
(-0.00063209	-0.000521	0.00169571)														
(-0.00060961	-0.000366	0.00186724)														
(-0.00058259	-0.000537	0.00178123)														
(-0.00062815	-0.000508	0.00155556)														
(-0.00055849	-0.000283	0.00170584)														
(-0.00077499	-0.000229	0.00188105)														
(-0.00059318	-0.000295	0.0017988)														
(-0.00078139	-0.000875	0.00171585)														
(-0.00070724	-0.000689	0.00160149)														
(-0.00066295	-0.000606	0.0018504)														
(-0.00042776	-0.000670	0.0018489)														
(-0.00068915	-0.000030	0.00151952)														
(-0.00060462	-0.000054	0.00159075)														
(-0.00077362	-0.000101	0.00152739)														
(-0.00086043	-0.000083	0.00147004)														
(-0.00077515	-0.000263	0.00139193)														
(-0.00058359	-0.000223	0.00162987)														
(-0.00073319	-0.000097	0.00173326)														
(-0.00079368	-0.000227	0.00178295)														
(-0.0005822	-0.000412	0.00178255)														
(-0.00102828	-0.000105	0.00176764)														
(-0.00091785	-0.000058	0.00178848)														
(-0.00098529	-0.000002	0.00171284)														
(-0.00107079	-0.000201	0.0020776)														
(-0.00081531	-0.000103	0.00179033)														
(-0.00112312	-0.000084	0.00201133)														
(-0.00085325	-0.000286	0.001916)														
(-0.00069756	-0.000042	0.001809)														
(-0.00084143	-0.000156	0.00199122)														
(-0.00069021	-0.000233	0.00208663)														
(-0.00053695	-0.000137	0.00172926)														
(-0.00070549	-0.000142	0.00204852)														
(-0.0005939	-0.000059	0.00176204)														
(-0.00067183	-0.000132	0.00190324)														
(-0.00070703	-0.000174	0.00216629)														
(-0.00063535	-0.000310	0.00211872)														
(-0.00091346	-0.000255	0.00214726)														
(-0.00052853	-0.000263	0.00201241)														
(-0.00055319	-0.000273	0.00188817)														
(-0.00086442	0.000021	0.00175864)														
(-0.00080428	0.000036	0.00166115)														
(-0.00107356	0.000102	0.00163541)														
(-0.00090447	0.000036	0.00166776)														
(-0.00086453	0.000024	0.0014353)														
(-0.00089248	0.000061	0.00157181)														
(-0.0010977	-0.000071	0.00162722)														
(-0.00076399	-0.000031	0.00159851)														
(-0.00122548	-0.000016	0.00161922)														
(-0.00117789	0.000007	0.00181419)														
(-0.00107913	-0.000528	0.00125158)														
(-0.00093619	-0.000502	0.00123426)														
(-0.00099341	-0.000388	0.00119834)														
(-0.00092922	-0.000591	0.00118888)														
(-0.00110316	-0.000495	0.00144067)														
(-0.00103346	-0.000366	0.00128754)														
(-0.00110553	-0.000388	0.0013856)														
(-0.00100892	-0.000285	0.00123482)														
(-0.00089248	-0.000412	0.00122945)														
(-0.00087677	-0.000151	0.00116172)														
(-0.00100026	0.000041	0.00147446)														
(-0.00107476	-0.000210	0.0012338)														
(-0.00113589	-0.000395	0.00148301)														
(-0.00083372	-0.000323	0.00133668)														
(-0.0009134	-0.000266	0.00125859)														
(-0.00094187	-0.000414	0.00131644)														
(-0.00077117	-0.000810	0.00127819)														
(-0.00058239	-0.000589	0.00151887)														
(-0.00087145	-0.000882	0.00130965)														
(-0.00079519	-0.000511	0.00136229)														
(-0.00068206	-0.000687	0.00129862)														
(-0.00080292	-0.000781	0.00147005)														
(-0.00090791	-0.000835	0.00150351)														
(-0.00072556	-0.000830	0.0015494)														
(-0.00089684	-0.000747	0.00145704)														
(-0.00071897	-0.000595	0.00139622)														
(-0.00048076	-0.000766	0.00147595)														
(-0.0005517	-0.000695	0.00148538)														
(-0.00063675	-0.000672	0.00153278)														
(-0.00064064	-0.000619	0.00172486)														
(-0.00071763	-0.000418	0.00133788)														
(-0.00069992	-0.000496	0.00139876)														
(-0.00050587	-0.000529	0.00154504)														
(-0.00056886	-0.000353	0.00151368)														
(-0.00049091	-0.000387	0.00162641)														
(-0.00071655	-0.000178	0.00149887)														
(-0.00126602	-0.000392	0.00161212)														
(-0.00128521	-0.000545	0.00143121)														
(-0.00117269	-0.000547	0.00138353)														
(-0.00061652	-0.000730	0.00161139)														
(-0.00041255	-0.000575	0.0018217)														
(-0.00083058	-0.000323	0.00200605)														
(-0.00096221	-0.000430	0.00205738)														
(-0.00073552	-0.000377	0.00211257)														
(-0.00088063	-0.000605	0.00202492)														
(-0.00074194	-0.000605	0.00199269)														
(-0.00070436	-0.000502	0.00209706)														
(-0.00081082	-0.000530	0.00203697)														
(-0.00088529	-0.000509	0.00210023)														
(-0.00088737	-0.000579	0.00191093)														
(-0.00093594	-0.000332	0.00198673)														
(-0.00102168	-0.000362	0.00190242)														
(-0.00099417	-0.000258	0.00189466)														
(-0.0010176	-0.000457	0.00194371)														
(-0.0010948	-0.000314	0.00183338)														
(-0.00106435	-0.000428	0.00182683)														
(-0.00109961	-0.000619	0.00193112)														
(-0.00102812	-0.000691	0.00191937)														
(-0.00091901	-0.000816	0.00199057)														
(-0.00062395	-0.000649	0.00194837)														
(-0.00061688	-0.000487	0.00196986)														
(-0.00082587	-0.000651	0.0019554)														
(-0.00099408	-0.00087352	0.00181964)														
(-0.00078497	-0.00072638	0.00190254)														
(-0.00084951	-0.00078164	0.00172596)														
(-0.00112638	-0.00057139	0.0017249)														
(-0.00116153	-0.00047474	0.00182026)														
(-0.00104832	-0.00074094	0.00176183)														
(-0.00095606	-0.0007544	0.00188661)														
(-0.00112174	-0.00068429	0.00172398)														
(-0.00106396	-0.0006398	0.00184015)														
(-0.00047896	-0.00022978	0.00209285)														
(-0.00052558	-0.00045921	0.00193982)														
(-0.00052616	-0.00059317	0.00184141)														
(-0.00056409	-0.00034491	0.00205745)														
(-0.00052344	-0.00072102	0.00178908)														
(-0.00050003	-0.00066747	0.00197895)														
(-0.00070773	-0.00070612	0.00180101)														
(-0.00079647	-0.00084359	0.00180937)														
(-0.00074604	-0.00078294	0.00173043)														
(-0.00122089	-0.00030158	0.00195513)														
(-0.00117418	-0.00024653	0.00140211)														
(-0.00122478	-0.00020152	0.00147561)														
(-0.00111123	-0.00013849	0.00136091)														
(-0.0012534	-0.00022019	0.00176299)														
(-0.00125765	-0.00027966	0.00157768)														
(-0.00124716	-0.00027056	0.00167689)														
(-0.00125389	-0.00029703	0.00147929)														
(-0.00116294	-0.00008158	0.00152267)														
(-0.00117737	-0.00009356	0.00176128)														
(-0.001208	-0.00010321	0.00166656)														
(-0.00105843	-0.00009471	0.00145948)														
(-0.00111005	-0.00011887	0.00126287)														
(-0.00113353	-0.00022808	0.0013126)														
(-0.00081617	-0.00004923	0.00138721)														
(-0.00097724	-0.00005997	0.00141243)														
(-0.00115139	-0.00066959	0.00155325)														
(-0.00122778	-0.00059433	0.00160873)														
(-0.00105495	-0.00070857	0.00163736)														
(-0.00122265	-0.00037364	0.00180271)														
(-0.00127187	-0.00050021	0.00176172)														
(-0.00127436	-0.00049094	0.00162383)														
(-0.00134895	-0.00020904	0.00173548)														
(-0.0013214	-0.0004319	0.00168964)														
(-0.00122108	-0.0004219	0.00152808)														
(-0.00123386	-0.00058519	0.00150934)														
(-0.00118058	-0.00028361	0.00178878)														
(-0.00130943	-0.00014799	0.00180406)														
(-0.00090945	-0.00086176	0.00171735)														
(-0.00095548	-0.00081739	0.00163107)														
(-0.00088881	-0.00088589	0.00160205)														
(-0.00095929	-0.00071699	0.00152903)														
(-0.00082579	-0.00082132	0.00155893)														
(-0.00105184	-0.00079926	0.00168074)														
(-0.00098679	-0.00065709	0.00130125)														
(-0.00108386	-0.00074978	0.00139803)														
(-0.00122005	-0.00062787	0.00141989)														
(-0.00114446	-0.00069553	0.00145682)														
(-0.0010878	-0.00061914	0.0014257)														
(-0.00101156	-0.00064708	0.00119295)														
(-0.00083809	-0.00068453	0.00140542)														
(-0.00113178	-0.00061243	0.00126481)														
(-0.00051161	-0.0003842	0.00187447)														
(-0.00050596	-0.00035346	0.00175435)														
(-0.00048201	-0.00031756	0.00194276)														
(-0.00061218	-0.00067669	0.00180149)														
(-0.00044999	-0.00056074	0.00173014)														
(-0.00062172	-0.00032937	0.00163113)														
(-0.00061522	-0.00010944	0.00167365)														
(-0.00066762	-0.00002805	0.00170164)														
(-0.00050476	-0.00003411	0.00180044)														
(-0.00046325	-0.00030763	0.00183218)														
(-0.0005723	-0.00016953	0.00187208)														
(-0.00074423	-0.00089349	0.00162473)														
(-0.00059216	-0.0008158	0.00165756)														
(-0.0004177	-0.00079517	0.00182556)														
(-0.0006137	-0.00071992	0.00171128)														
(-0.00027975	-0.00070079	0.00195655)														
(-0.00078792	0.00008738	0.00142203)														
(-0.00074325	-0.00010197	0.00134349)														
(-0.00070973	0.00002529	0.00142547)														
(-0.00062026	-0.0001624	0.00155921)														
(-0.00053037	-0.0000492	0.00152394)														
(-0.00073384	-0.00007105	0.00144013)														
(-0.00071924	0.00005278	0.00156826)														
(-0.00082272	-0.00005937	0.00128786)														
(-0.00079878	-0.00018697	0.001332)														
(-0.00059182	-0.00020998	0.00147594)														
(-0.0005925	0.00002037	0.00165675)														
(-0.00075557	0.00000618	0.00174321)														
(-0.00070789	0.00006406	0.00166858)														
(-0.00052608	-0.00012422	0.00163082)														
(-0.00109828	-0.00006656	0.0018276)														
(-0.00101207	-0.00012052	0.00206858)														
(-0.00097529	-0.00005678	0.00200036)														
(-0.00102096	0.00003646	0.00183985)														
(-0.0012074	0.00008993	0.00188565)														
(-0.00095939	0.0000932	0.00172917)														
(-0.00112316	0.00012188	0.00197643)														
(-0.00101565	-0.00016935	0.00217793)														
(-0.00093617	-0.00012766	0.00213316)														
(-0.00092689	0.00004938	0.00205856)														
(-0.00104808	-0.00013743	0.00189588)														
(-0.0008903	-0.00024321	0.00199878)														
(-0.00064496	-0.00002633	0.0018928)														
(-0.00069387	0.0000568	0.00182525)														
(-0.00084252	-0.00015891	0.00211672)														
(-0.00073805	-0.0000557	0.00214474)														
(-0.00056818	-0.00009793	0.00206915)														
(-0.00062451	-0.00012728	0.00199146)														
(-0.00054306	-0.00010166	0.00193948)														
(-0.00041421	-0.00027591	0.00203226)														
(-0.00053764	0.0000527	0.00173377)														
(-0.00049868	-0.00004777	0.00170157)														
(-0.00063923	0.00005904	0.00174156)														
(-0.00058417	0.00002417	0.00181747)														
(-0.00071786	-0.00026669	0.0022035)														
(-0.00079334	-0.00026068	0.00213707)														
(-0.0006134	-0.00022279	0.00216207)														
(-0.00092081	-0.00017615	0.00221948)														
(-0.00046148	-0.00019275	0.00198882)														
(-0.00045057	-0.00037017	0.00202229)														
(-0.00079406	0.00005756	0.0018199)														
(-0.00084944	0.00011852	0.0017395)														
(-0.00080796	0.0001237	0.00161333)														
(-0.00112431	0.00021178	0.00160079)														
(-0.00107923	0.00008916	0.00173466)														
(-0.00091373	0.00009234	0.00135938)														
(-0.00081554	0.00009533	0.00151772)														
(-0.00090221	0.0001144	0.00145621)														
(-0.00089538	0.00015787	0.00154605)														
(-0.00119547	0.0000864	0.00157656)														
(-0.00071509	0.00015075	0.00158822)														
(-0.001133	0.00002186	0.00162052)														
(-0.00115026	0.00002044	0.00171912)														
(-0.00126732	-0.00003735	0.00178581)														
(-0.0011291	-0.00064694	0.00117093)														
(-0.00107855	-0.00043991	0.00120439)														
(-0.0011706	-0.00051304	0.0012895)														
(-0.00087829	-0.00051229	0.00115343)														
(-0.0010555	-0.00056203	0.00116038)														
(-0.00099968	-0.00047924	0.00115601)														
(-0.00118873	-0.00040839	0.00129441)														
(-0.00119083	-0.00044035	0.00138909)														
(-0.00113691	-0.00032373	0.00128291)														
(-0.00121845	-0.00032062	0.00118141)														
(-0.00130653	-0.00037565	0.00132038)														
(-0.00106444	-0.00025598	0.00114576)														
(-0.00092281	-0.00041915	0.00113432)														
(-0.00099761	-0.00009409	0.00125764)														
(-0.00090937	-0.00015927	0.0010675)														
(-0.00077055	-0.00013609	0.00125059)														
(-0.00110186	0.00005892	0.00144941)														
(-0.00108857	-0.00007148	0.00117746)														
(-0.00113173	-0.00017648	0.00115857)														
(-0.00131628	-0.00036457	0.00142799)														
(-0.00083785	-0.00032789	0.00123662)														
(-0.00089235	-0.00033956	0.00108182)														
(-0.00064181	-0.00036342	0.00130253)														
(-0.00081545	-0.00063596	0.00124369)														
(-0.00077407	-0.00064981	0.00133366)														
(-0.00082342	-0.00073602	0.00132081)														
(-0.00079787	-0.00081555	0.001376)														
(-0.00059138	-0.0007736	0.00140508)														
(-0.00092163	-0.00075517	0.00133404)														
(-0.0008328	-0.00053657	0.00127328)														
(-0.00066147	-0.00077572	0.00125754)														
(-0.00068959	-0.0007726	0.001424)														
(-0.00082318	-0.00087808	0.00144981)														
(-0.0008796	-0.00093089	0.00151312)														
(-0.00072396	-0.00086166	0.00145452)														
(-0.00089489	-0.00082756	0.00139785)														
(-0.00059624	-0.00060443	0.00142107)														
(-0.0007342	-0.00056374	0.00130225)														
(-0.00066374	-0.00067687	0.0014367)														
(-0.00045258	-0.00087914	0.00151992)														
(-0.00080035	-0.00045209	0.00123082)														
(-0.000925	-0.00031866	0.00117418)														
(-0.00058878	-0.00050591	0.00140538)														
(-0.00046082	-0.00052916	0.00163589)														
(-0.00073967	-0.00030482	0.0013077)														
(-0.00070553	-0.00017566	0.00139958)														
(-0.00048851	-0.00028734	0.00163451)														
(-0.0005629	-0.0004646	0.00149346)														
(-0.00037506	-0.0005104	0.00168673)														
(-0.00060818	-0.00015237	0.00139552)														
(-0.0013326	-0.00033583	0.0016614)														
(-0.00129054	-0.00045117	0.00138422)														
(-0.00121928	-0.00059847	0.00131146)														
(-0.00126913	-0.00051168	0.00130642)														
(-0.00052268	-0.00072245	0.00157743)														
(-0.00050958	-0.00062251	0.00157963)														
(-0.00052314	-0.00069744	0.00167473)														
(-0.0004103	-0.00056806	0.00151814)														
(-0.00047733	-0.00044863	0.00180606)														
(-0.00082728	-0.00035438	0.00214614)														
(-0.00090114	-0.00034148	0.00208009)														
(-0.0009848	-0.00051862	0.00209715)														
(-0.00090793	-0.00042065	0.00214087)														
(-0.00067987	-0.00035917	0.00219378)														
(-0.00073648	-0.00045307	0.00217833)														
(-0.00064012	-0.00039867	0.00201036)														
(-0.00078279	-0.00061487	0.00208339)														
(-0.00066353	-0.00073027	0.00199156)														
(-0.00058296	-0.0006867	0.00203194)														
(-0.00064903	-0.00051182	0.00221371)														
(-0.00057916	-0.00051513	0.00207306)														
(-0.00052873	-0.00043635	0.00203749)														
(-0.00093091	-0.00057632	0.00215896)														
(-0.00095819	-0.0006538	0.00206423)														
(-0.00087228	-0.00064641	0.00211527)														
(-0.00102465	-0.00037512	0.00200151)														
(-0.00102272	-0.00027651	0.00203227)														
(-0.001119	-0.00035013	0.00192329)														
(-0.00125955	-0.0001362	0.00209267)														
(-0.00111171	-0.00046475	0.00190701)														
(-0.00108105	-0.0005945	0.00206708)														
(-0.00119347	-0.00040904	0.0018919)														
(-0.00115187	-0.00056868	0.00200069)														
(-0.00098499	-0.0006006	0.00192008)														
(-0.00105091	-0.00068888	0.00205093)														
(-0.00103483	-0.00079962	0.00192888)														
(-0.0008052	-0.00085135	0.00200704)														
(-0.00065535	-0.00082741	0.00191937)														
(-0.00053588	-0.00057035	0.00199846)														
(-0.00086081	-0.0007095	0.00203859)														
(-0.00073865	-0.00079209	0.00196186)														
(-0.00093987	-0.00085767	0.00190235)														
(-0.00074758	-0.00089384	0.0019212)														
(-0.00084815	-0.00081919	0.00189138)														
(-0.00120628	-0.00063124	0.00171956)														
(-0.00124003	-0.00052735	0.00185267)														
(-0.00107005	-0.00080537	0.00183505)														
(-0.00094773	-0.00078893	0.00179288)														
(-0.00098714	-0.00074202	0.0019953)														
(-0.00114507	-0.00074678	0.00161645)														
(-0.00116732	-0.00074809	0.00178816)														
(-0.00111338	-0.00072177	0.00186888)														
(-0.00053155	-0.00030005	0.00214085)														
(-0.00035689	-0.00058036	0.00200349)														
(-0.00044936	-0.000585	0.0019496)														
(-0.00047689	-0.00069104	0.00207332)														
(-0.00034564	-0.00076637	0.00199324)														
(-0.00052083	-0.00068412	0.00188259)														
(-0.00063663	-0.00084143	0.00182221)														
(-0.00051543	-0.00080294	0.00184588)														
(-0.00080203	-0.00095124	0.00179509)														
(-0.00060049	-0.00077993	0.00150458)														
(-0.00116501	-0.00022343	0.0020091)														
(-0.00119625	-0.00014907	0.00130948)														
(-0.00125809	-0.00019354	0.00138158)														
(-0.0012202	-0.00010302	0.00140067)														
(-0.00129507	-0.00015211	0.00167329)														
(-0.00124357	-0.00013529	0.00154821)														
(-0.00131418	-0.00019588	0.00158535)														
(-0.00135758	-0.00028552	0.00157404)														
(-0.00132579	-0.00025429	0.00142306)														
(-0.00113963	-0.00004256	0.00143364)														
(-0.00117128	0.00001686	0.00150779)														
(-0.00121378	-0.00015172	0.00183389)														
(-0.00125114	0.00002344	0.00170781)														
(-0.0011086	-0.00004113	0.00133833)														
(-0.00118284	-0.00009907	0.00119651)														
(-0.0012136	-0.00026167	0.00126212)														
(-0.00093002	-0.0000051	0.00134342)														
(-0.00080816	0.00008837	0.00132414)														
(-0.00107516	0.00001382	0.0015349)														
(-0.00115757	-0.00077156	0.00152046)														
(-0.00131395	-0.00064427	0.00160085)														
(-0.0013264	-0.00060305	0.00169104)														
(-0.00100107	-0.00080803	0.00152766)														
(-0.00113174	-0.00082633	0.00144083)														
(-0.00136844	-0.00048987	0.00182014)														
(-0.00128408	-0.00045052	0.00189938)														
(-0.00131346	-0.00041296	0.00178745)														
(-0.00130212	-0.00046087	0.00148301)														
(-0.00138757	-0.00045838	0.00159004)														